DATABASE C:\Program Files (x86)\USGS\Phreeqc Interactive 3.7.3-15968\database\phreeqc.dat
SOLUTION 1
    temp      25
    pH        7
    pe        4
    redox     pe
    units     mg/l
    density   1
    Ca        2.66
    K         1.71
    Mg        1.76
    Na        3.9
    S(-2)     43.32
    -water    1 # kg
